-------------------------------------------------------
          Amber 20 PMEMD                              2020
          -------------------------------------------------------

  [-O]verwriting output

File Assignments:

 Here is the input file:

500ns of production - NTP - Langevin thermostat - gamma 0.01 - Monte Carlo baro
 &cntrl
   imin=0,
   irest=1,
   tol=0.0000001,
   nstlim=25000000,
   ntx=5,                           ! Read coordinates and velocities from rest
   ntc=2, ntf=2,                    ! SHAKE, constrain lenghts of the bonds hav
   ntpr=50000, ntwr=50000, ntwx=50000, ! save every 5000 frames - 20ps
   dt=0.004,                        ! Time step using H-mass repartition
   ig=-1,                           ! seed for the pseudo-random number generat
   iwrap=1,                         ! Wrap coordinates
   ntb=2,                           ! Periodic boundaries
   ntt=3, gamma_ln=0.01             ! Langevin dynamics
   ntp=1,                           ! Pressure scaling with isotropic position
   cut=8.0,
   barostat=2,                      ! Monte Carlo Barostat
   timlim=170000,
   temp0=298.14,
 /
&ewald
  netfrc=0,
  skin_permit=0.75,
&end

Note: ig = -1. Setting random seed to   493377 based on wallclock time in
      microseconds.

--------------------------------------------------------------------------------
   1.  RESOURCE   USE:
--------------------------------------------------------------------------------

 getting box info from netcdf restart file
 NATOM  =   16318 NTYPES =      19 NBONH =   15788 MBONA  =     544
 NTHETH =     640 MTHETA =     836 NPHIH =    1390 MPHIA  =    1756
 NHPARM =       0 NPARM  =       0 NNB   =   24942 NRES   =    5240
 NBONA  =     544 NTHETA =     836 NPHIA =    1756 NUMBND =      52
 NUMANG =     103 NPTRA  =      71 NATYP =      33 NPHB   =       1
 IFBOX  =       2 NMXRS  =      34 IFCAP =       0 NEXTRA =       0
 NCOPY  =       0

     BOX TYPE: TRUNCATED OCTAHEDRON

--------------------------------------------------------------------------------
   2.  CONTROL  DATA  FOR  THE  RUN
--------------------------------------------------------------------------------

default_name

General flags:
     imin    =       0, nmropt  =       0

Nature and format of input:
     ntx     =       5, irest   =       1, ntrx    =       1

Nature and format of output:
     ntxo    =       2, ntpr    =   50000, ntrx    =       1, ntwr    =   50000
     iwrap   =       1, ntwx    =   50000, ntwv    =       0, ntwe    =       0
     ioutfm  =       1, ntwprt  =       0, idecomp =       0, rbornstat=      0

Potential function:
     ntf     =       2, ntb     =       2, igb     =       0, nsnb    =      25
     ipol    =       0, gbsa    =       0, iesp    =       0
     dielc   =   1.00000, cut     =   8.00000, intdiel =   1.00000

Frozen or restrained atoms:
     ibelly  =       0, ntr     =       0

Molecular dynamics:
     nstlim  =  25000000, nscm    =      1000, nrespa  =         1
     t       =   0.00000, dt      =   0.00400, vlimit  =  -1.00000

Langevin dynamics temperature regulation:
     ig      =  493377
     temp0   = 298.14000, tempi   =   0.00000, gamma_ln=   0.01000

Pressure regulation:
     ntp     =       1
     pres0   =   1.00000, comp    =  44.60000, taup    =   1.00000
     Monte-Carlo Barostat:
     mcbarint  =     100

SHAKE:
     ntc     =       2, jfastw  =       0
     tol     =   0.00000

Ewald parameters:
     verbose =       0, ew_type =       0, nbflag  =       1, use_pme =       1
     vdwmeth =       1, eedmeth =       1, netfrc  =       0
     Box X =   59.396   Box Y =   59.396   Box Z =   59.396
     Alpha =  109.471   Beta  =  109.471   Gamma =  109.471
     NFFT1 =   64       NFFT2 =   64       NFFT3 =   64
     Cutoff=    8.000   Tol   =0.100E-04
     Ewald Coefficient =  0.34864
     Interpolation order =    4

--------------------------------------------------------------------------------
   3.  ATOMIC COORDINATES AND VELOCITIES
--------------------------------------------------------------------------------

default_name
 begin time read from input coords =  7000.000 ps

 Number of triangulated 3-point waters found:     5172

     Sum of charges from parm topology file =  -0.00000554
     Forcing neutrality...

--------------------------------------------------------------------------------
   4.  RESULTS
 NSTEP =    50000   TIME(PS) =    7200.000  TEMP(K) =   297.02  PRESS =     0.0
 Etot   =    -57203.7174  EKtot   =      9787.7305  EPtot      =    -66991.4479
 BOND   =       226.6379  ANGLE   =       432.3289  DIHED      =       687.7599
 1-4 NB =       199.0980  1-4 EEL =     -3188.0808  VDWAALS    =     10316.2341
 EELEC  =    -75665.4258  EHBOND  =         0.0000  RESTRAINT  =         0.0000
 EKCMT  =         0.0000  VIRIAL  =         0.0000  VOLUME     =    161125.6362
                                                    Density    =         1.0471
 ------------------------------------------------------------------------------

      A V E R A G E S   O V E R     500 S T E P S

 NSTEP = 25000000   TIME(PS) =  107000.000  TEMP(K) =   298.67  PRESS =     0.0
 Etot   =    -57143.8447  EKtot   =      9842.3790  EPtot      =    -66986.2238
 BOND   =       214.1265  ANGLE   =       423.3747  DIHED      =       687.7847
 1-4 NB =       201.5388  1-4 EEL =     -3174.8721  VDWAALS    =     10319.5404
 EELEC  =    -75657.7167  EHBOND  =         0.0000  RESTRAINT  =         0.0000
 EKCMT  =         0.0000  VIRIAL  =         0.0000  VOLUME     =    161425.0862
                                                    Density    =         1.0451
 ------------------------------------------------------------------------------

      R M S  F L U C T U A T I O N S

 NSTEP = 25000000   TIME(PS) =  107000.000  TEMP(K) =     2.31  PRESS =     0.0
 Etot   =       139.9655  EKtot   =        76.2516  EPtot      =       120.7139
 BOND   =        12.7541  ANGLE   =        15.7821  DIHED      =        10.4698
 1-4 NB =         5.5127  1-4 EEL =        17.8201  VDWAALS    =       132.7356
 EELEC  =       204.4655  EHBOND  =         0.0000  RESTRAINT  =         0.0000
 EKCMT  =         0.0000  VIRIAL  =         0.0000  VOLUME     =       529.7056
                                                    Density    =         0.0034
 ------------------------------------------------------------------------------
